<?xml version="1.0" encoding="utf-8"?>
<!DOCTYPE population SYSTEM "http://www.matsim.org/files/dtd/population_v6.dtd">

<population>

    <attributes>
        <attribute name="coordinateReferenceSystem" class="java.lang.String">EPSG:25832</attribute>
    </attributes>


    <!-- ====================================================================== -->

    <person id="1">
        <plan score="80.11179641489682" selected="yes">
            <activity type="home_46200.0" link="1454187830006r" x="344299.8126858568" y="5675402.628115339" end_time="03:59:47"/>

            <leg mode="transit_walk" dep_time="03:59:47">
                <route type="generic" start_link="1454187830006r" end_link="1454187830006r" trav_time="00:15:20" distance="747.1733687259284"/>
            </leg>

            <activity type="leisure_2400.0" link="1454187830006r" x="344299.8126858568" y="5675402.628115339" max_dur="00:00:00"/>

            <leg mode="non_network_walk" dep_time="04:15:07">
                <route type="generic" start_link="1454187830006r" end_link="10723" trav_time="00:23:01" distance="2763.424921008634"/>
            </leg>

            <activity type="car interaction" link="1454187830006r" x="344299.8126858568" y="5675402.628115339" max_dur="00:00:00"/>

            <leg mode="car" dep_time="04:38:08">
                <route type="links" start_link="1454187830006r" end_link="234503380002f" trav_time="00:02:07" distance="609.2" vehicleRefId="1">
                    1454187830006r 406990160002f 406990160003f 234503380002f
                </route>
            </leg>

            <activity type="car interaction" link="234503380002f" x="344515.9594858251" y="5675801.578152071" max_dur="00:00:00"/>

            <leg mode="non_network_walk" dep_time="05:38:34">
                <route type="generic" start_link="234503380002f" end_link="234503380002f" trav_time="00:02:46" distance="332.50512540305425"/>
            </leg>

            <activity type="work_28200.0" link="234503380002f"  x="344515.9594858251" y="5675801.578152071"  end_time="12:32:29"/>

            <leg mode="non_network_walk" dep_time="12:32:29">
                <route type="generic" start_link="234503380002f" end_link="234503380002f" trav_time="00:02:46" distance="332.50512540305425"/>
            </leg>

            <activity type="car interaction" link="234503380002f" x="4672232.820896338" y="5804186.049182902" max_dur="00:00:00"/>

            <leg mode="car" dep_time="12:35:15">
                <route type="links" start_link="234503380002f" end_link="2355512200003f" trav_time="00:14:59" distance="13219.912287795654" vehicleRefId="1">
                    234503380015f 1490764620003f 1490764670002f 2355512190000f 2355512210002f 5450650390003f 2355512180000f 2355512200003f
                </route>
            </leg>

            <activity type="car interaction" link="2355512200003f" x="344858.6810672649" y="5675963.951763908" max_dur="00:00:00"/>

            <leg mode="non_network_walk" dep_time="12:50:14">
                <route type="generic" start_link="2355512200003f" end_link="2355512200003f" trav_time="00:02:50" distance="341.79275859388395"/>
            </leg>

            <activity type="leisure_600.0" link="2355512200003f" x="344858.6810672649" y="5675963.951763908" max_dur="00:00:00"/>
        </plan>
    </person>
</population>